[TITLE]
;;Project Title/Notes
SHC_Baseline

[OPTIONS]
;;Option             Value
FLOW_UNITS           CFS
INFILTRATION         GREEN_AMPT
FLOW_ROUTING         DYNWAVE
LINK_OFFSETS         DEPTH
MIN_SLOPE            0.001
ALLOW_PONDING        YES
SKIP_STEADY_STATE    NO

START_DATE           01/01/1999
START_TIME           00:00:00
REPORT_START_DATE    01/01/1999
REPORT_START_TIME    00:00:00
END_DATE             12/31/1999
END_TIME             00:00:00
SWEEP_START          01/01
SWEEP_END            12/31
DRY_DAYS             0
REPORT_STEP          00:15:00
WET_STEP             00:01:00
DRY_STEP             00:15:00
ROUTING_STEP         0:00:30 
RULE_STEP            00:00:00

INERTIAL_DAMPING     PARTIAL
NORMAL_FLOW_LIMITED  BOTH
FORCE_MAIN_EQUATION  H-W
VARIABLE_STEP        0.75
LENGTHENING_STEP     0
MIN_SURFAREA         12.557
MAX_TRIALS           8
HEAD_TOLERANCE       0.005
SYS_FLOW_TOL         5
LAT_FLOW_TOL         5
MINIMUM_STEP         0.5
THREADS              8

[EVAPORATION]
;;Data Source    Parameters
;;-------------- ----------------
TEMPERATURE 
DRY_ONLY         YES

[TEMPERATURE]
;;Data Element     Values     
FILE               "C:\Users\rwl21875\Documents\WORK\SWMM_Rain_Gardens\City_Analysis\New_Orleans\New_Orleans_Climate_Dry.txt"
WINDSPEED FILE    
SNOWMELT           34 0.5 0.6 0.0 30 0.0
ADC IMPERVIOUS     1.0 1.0 1.0 1.0 1.0 1.0 1.0 1.0 1.0 1.0
ADC PERVIOUS       0.10 0.35 0.53 0.66 0.75 0.82 0.87 0.92 0.95 0.98

[RAINGAGES]
;;Name           Format    Interval SCF      Source    
;;-------------- --------- ------ ------ ----------
SHC              VOLUME    1:00     1        FILE       "C:\Users\rwl21875\Documents\WORK\SWMM_Rain_Gardens\City_Analysis\New_Orleans\New_Orleans_PPT_Dry.txt" New_Orleans IN   

[SUBCATCHMENTS]
;;Name           Rain Gage        Outlet           Area     %Imperv  Width    %Slope   CurbLen  SnowPack        
;;-------------- ---------------- ---------------- -------- -------- -------- -------- -------- ----------------
Sub000           SHC              J217             0.36228  100      1578.07  2.5      0        Snow_all        
Sub001           SHC              WetPond_Sub001   3.79498  30.42    2579.34  3.26     0                        
Sub002           SHC              DryPond_Sub002   2.95863  42.59    2532.05  3.47     0                        
Sub003           SHC              J331             11.00163 1.43     4959.96  2.01     0                        
Sub004           SHC              J331             20.3104  5.58     9568.75  2.03     0                        
Sub005           SHC              J30              12.30226 7.47     6334.75  2.04     0                        
Sub006           SHC              In6              0.45565  42.7     377.34   1.85     0                        
Sub007           SHC              In7              0.07516  35.4     54.6     6.15     0                        
Sub008           SHC              J332             0.13571  0.3      74.1     2        0                        
Sub009           SHC              In9              3.11869  0        1492.04  2        0                        
Sub010           SHC              In9              0.30894  38.36    231.28   6.42     0                        
Sub011           SHC              J332             0.75651  14.5     471.85   2.07     0                        
Sub012           SHC              In12             0.45535  73.08    607.09   5.28     0                        
Sub013           SHC              In13             0.08969  44.71    71.4     7.26     0                        
Sub014           SHC              In14             0.56848  60.13    655.48   3.22     0                        
Sub015           SHC              In13             0.80996  0        379.63   2        0                        
Sub016           SHC              J331             17.74094 1.28     7895.49  2.01     0                        
Sub017           SHC              J350             0.67759  22.62    438.9    4.69     0                        
Sub018           SHC              In18             0.43115  13.72    259.72   3.67     0                        
Sub019           SHC              In19             1.44545  0.04     663.98   2.01     0                        
Sub020           SHC              In19             0.18108  75.79    213.43   10.78    0                        
Sub021           SHC              In21             0.83314  66.92    962.19   5.92     0                        
Sub022           SHC              In22             0.38194  22.95    247.03   4.9      0                        
Sub023           SHC              In23             0.36597  16.96    227.11   3.82     0                        
Sub024           SHC              In24             0.20516  12.48    121.22   3.43     0                        
Sub025           SHC              J350             1.11061  7.26     637.49   2.85     0                        
Sub026           SHC              In26             0.61186  63.48    705.98   3.82     0                        
Sub027           SHC              In27             1.09658  0.29     516.21   2.04     0                        
Sub028           SHC              In27             0.14028  74.73    160.14   11.12    0                        
Sub029           SHC              In29             0.23763  37.24    176.25   6.22     0                        
Sub030           SHC              In30             0.40501  60.25    439.56   4.04     0                        
Sub031           SHC              In31             0.33384  35.31    241.98   6.2      0                        
Sub032           SHC              In32             1.82318  43.53    1576.31  2.95     0                        
Sub033           SHC              In33             0.23983  31.33    167.61   5.73     0                        
Sub034           SHC              In34             2.06362  0.21     968.06   2.02     0                        
Sub035           SHC              In35             0.36857  59.45    402.71   3.19     0                        
Sub036           SHC              In36             1.31239  68.32    1528.81  6.37     0                        
Sub037           SHC              J353             1.34374  24.7     885.59   4.96     0                        
Sub038           SHC              In34             0.27417  78.45    334.34   11.3     0                        
Sub039           SHC              J351             0.72678  4.72     410.99   2.32     0                        
Sub040           SHC              In40             0.28824  64.7     330.84   4.75     0                        
Sub041           SHC              In41             0.20117  32.28    141.82   5.83     0                        
Sub042           SHC              In42             0.15052  15.64    91.85    4.02     0                        
Sub043           SHC              In35             0.19341  59.07    214.65   2.45     0                        
Sub044           SHC              In44             0.56508  68.18    654.46   6.45     0                        
Sub045           SHC              In45             0.41315  65.22    476.97   5.05     0                        
Sub046           SHC              In46             0.13203  40.61    101.17   6.63     0                        
Sub047           SHC              J353             0.66385  1.09     365.03   1.99     0                        
Sub048           SHC              J355             0.77759  35.87    566.7    6.26     0                        
Sub049           SHC              In49             0.65155  33.89    467.64   5.87     0                        
Sub050           SHC              In50             0.24677  44.61    196.05   7.29     0                        
Sub051           SHC              In51             0.63938  55.15    653.08   3.16     0                        
Sub052           SHC              In44             0.23408  48.21    214.7    3.09     0                        
Sub053           SHC              In53             0.24818  34.3     178.03   6.13     0                        
Sub054           SHC              In54             1.68117  67.62    1964.65  5.86     0                        
Sub055           SHC              J355             1.08044  19.37    689.82   3.4      0                        
Sub056           SHC              In56             0.36732  40.07    277.77   6.92     0                        
Sub057           SHC              In57             1.17419  44.77    990.53   4.6      0                        
Sub058           SHC              J359             0.6055   33.67    430.77   6.16     0                        
Sub059           SHC              In59             0.40126  75.78    582.25   4.7      0                        
Sub060           SHC              In53             0.1998   33.73    142.27   6.17     0                        
Sub061           SHC              In56             0.15164  36.28    110.53   6.49     0                        
Sub062           SHC              In62             0.27393  7.73     157.94   2.85     0                        
Sub063           SHC              In57             1.1213   45.43    951.92   4.74     0                        
Sub064           SHC              In64             0.36594  31.83    255.88   5.98     0                        
Sub065           SHC              In1065           1.04271  19.67    670.81   3.36     0                        
Sub066           SHC              J356             0.92164  6.24     525.39   2.72     0                        
Sub067           SHC              In67             0.34794  73.41    484.88   4.49     0                        
Sub068           SHC              J358             0.83338  38.26    618.11   6.77     0                        
Sub069           SHC              In69             0.82643  50.54    773.03   3.85     0                        
Sub070           SHC              J358             0.90328  9.95     518.4    2.45     0                        
Sub071           SHC              In71             0.15001  49.23    144.77   2.13     0                        
Sub072           SHC              In72             0.22809  51.54    229.15   2.02     0                        
Sub073           SHC              In73             1.59733  65       1788.05  5.73     0                        
Sub074           SHC              In74             0.37812  74.52    529.62   4.91     0                        
Sub075           SHC              In75             1.40415  36.83    1090.41  3.67     0                        
Sub076           SHC              In76             0.75462  20.36    480.17   4.37     0                        
Sub077           SHC              In77             0.45085  44.96    396.19   3.16     0                        
Sub078           SHC              In78             0.66823  49.88    614.88   4.04     0                        
Sub079           SHC              J360             0.50289  10.96    296.37   3.38     0                        
Sub080           SHC              In80             2.87733  30.33    2075.29  3.19     0                        
Sub081           SHC              J360             0.43862  20.99    280.44   4.47     0                        
Sub082           SHC              In82             0.4358   6.67     249.21   2.74     0                        
Sub083           SHC              J362             1.54893  28.42    1048.88  5.66     0                        
Sub084           SHC              In84             0.8756   62.86    1004.46  3.77     0                        
Sub085           SHC              In85             0.61916  32.31    436.42   5.86     0                        
Sub086           SHC              In1086           1.24299  10.72    735.79   2.98     0                        
Sub087           SHC              In87             2.25279  43.7     1900.6   3.98     0                        
Sub088           SHC              In88             0.86111  45.18    735.1    4.29     0                        
Sub089           SHC              In89             1.78075  24.93    1220.74  2.91     0                        
Sub090           SHC              In90             1.27741  32.94    953.63   3.4      0                        
Sub091           SHC              J362             0.53957  18.73    340.46   3.91     0                        
Sub092           SHC              In92             1.04713  46.57    917.79   4.16     0                        
Sub093           SHC              J228             0.95594  3.92     539.49   1.99     0                        
Sub094           SHC              In94             0.33258  20.51    212.04   4.35     0                        
Sub095           SHC              In95             1.30245  50.47    1193.38  4.54     0                        
Sub096           SHC              In96             1.41895  32.19    1047.59  3.44     0                        
Sub097           SHC              In97             0.37402  21.2     239.03   4.61     0                        
Sub098           SHC              In95             1.1421   48.25    1038.27  3.59     0                        
Sub099           SHC              In99             0.98374  26.81    691.23   2.88     0                        
Sub100           SHC              In100            1.02236  30.73    734.4    2.95     0                        
Sub101           SHC              In101            1.76678  49.39    1611.63  4.16     0                        
Sub102           SHC              In102            1.80405  46.16    1572.31  4.06     0                        
Sub103           SHC              In103            0.3009   11.54    178.58   3.3      0                        
Sub104           SHC              In104            1.84457  50.75    1720.09  4.02     0                        
Sub105           SHC              In105            2.15768  18.57    1362.19  3.76     0                        
Sub106           SHC              In106            0.30863  22.25    202.74   3.82     0                        
Sub107           SHC              In107            1.09221  3.21     612.37   1.98     0                        
Sub108           SHC              In108            0.94522  42.57    771.42   3.49     0                        
Sub109           SHC              In109            1.08621  15.63    666.71   3.68     0                        
Sub110           SHC              In110            0.45629  23.25    313.09   2.09     0                        
Sub111           SHC              In111            0.99329  0        540.85   2        0                        
Sub112           SHC              In112            1.87536  56.5     1866.84  4.94     0                        
Sub113           SHC              In113            2.3681   44.55    1991.59  4.56     0                        
Sub114           SHC              J366             2.45902  15.1     1509.64  3.26     0                        
Sub115           SHC              In115            1.0232   56.31    1068.72  3.14     0                        
Sub116           SHC              In116            0.60364  32.38    461.6    2.06     0                        
Sub117           SHC              In117            1.86008  41.42    1563.63  2.89     0                        
Sub118           SHC              In118            1.72355  11.23    1021.69  3.21     0                        
Sub119           SHC              J157             1.13514  39.09    926.96   2.74     0                        
Sub120           SHC              In120            0.57029  24.73    396.09   2.29     0                        
Sub121           SHC              In121            1.29806  22.5     815.87   3.58     0                        
Sub122           SHC              In122            0.42189  6.75     233.51   2.12     0                        
Sub123           SHC              In123            0.9806   46.69    855.03   4.24     0                        
Sub124           SHC              In124            1.6817   12.58    1011.69  3.1      0                        
Sub125           SHC              J366             1.49015  19.93    951.76   3.89     0                        
Sub126           SHC              In126            1.75211  55.71    1715.24  5.08     0                        
Sub127           SHC              In127            1.1963   16.9     755.53   2.76     0                        
Sub128           SHC              In128            1.52054  51.01    1424.82  3.95     0                        
Sub129           SHC              In129            0.11941  0.27     65.14    2.03     0                        
Sub130           SHC              In118            0.28032  34.26    203.34   5.53     0                        
Sub131           SHC              In131            0.78096  41.03    657.83   2.88     0                        
Sub132           SHC              In123            0.50972  49.47    470.8    3.65     0                        
Sub133           SHC              In133            1.08164  51.99    1018.2   4.47     0                        
Sub134           SHC              J367             1.54675  12.05    924.21   3.17     0                        
Sub135           SHC              In135            0.60702  41.39    522.26   2.2      0                        
Sub136           SHC              In136            1.09298  40.77    893.1    3.69     0                        
Sub137           SHC              Aesthetic_Pond   1.99595  60.12    552.16   3.5      0                        
Sub138           SHC              J367             0.10069  13.96    62.57    2.05     0                        
Sub139           SHC              In139            1.64004  50.76    1513.91  4.32     0                        
Sub140           SHC              DryPond_Sub140   0.14962  26.84    107.05   2.09     0                        
Sub141           SHC              In141            0.24835  50.23    239.86   2.11     0                        
Sub142           SHC              In142            2.10071  26.1     1452.2   3.21     0                        
Sub143           SHC              In143            1.21889  14.35    743.09   3.34     0                        
Sub144           SHC              In136            1.16426  32.99    872.36   3.17     0                        
Sub145           SHC              In145            1.47191  41.41    1218.37  3.52     0                        
Sub146           SHC              In146            1.0786   23.22    721.3    3.38     0                        
Sub147           SHC              In147            0.53657  51.43    508.89   3.86     0                        
Sub148           SHC              In148            1.65182  15.97    1019.2   3.57     0                        
Sub149           SHC              In149            1.5088   41.3     1247.28  3.54     0                        
Sub150           SHC              J368             1.05018  15.63    649.94   3.16     0                        
Sub151           SHC              J369             1.03296  15.75    641.59   2.83     0                        
Sub152           SHC              In147            0.61095  48.56    546.05   4.54     0                        
Sub153           SHC              In153            1.73869  19.89    1099.13  3.95     0                        
Sub154           SHC              In154            0.71996  48.98    658.56   3.79     0                        
Sub155           SHC              In155            1.00376  49.88    937.75   3.43     0                        
Sub156           SHC              J372             1.00746  23.59    671.99   3.59     0                        
Sub157           SHC              J368             1.39128  22.6     891.83   3.81     0                        
Sub158           SHC              In158            2.06084  27.34    1397.94  4.96     0                        
Sub159           SHC              In159            0.77915  50.99    739.15   3.53     0                        
Sub160           SHC              In160            2.07487  45.35    1801.1   3.75     0                        
Sub161           SHC              In159            0.52071  53.04    509.15   3.6      0                        
Sub162           SHC              In162            1.31745  13.18    780.82   3.07     0                        
Sub163           SHC              In163            0.85572  11.06    511.93   2.56     0                        
Sub164           SHC              J374             1.72647  18.48    1090.21  3.67     0                        
Sub165           SHC              J373             0.74948  21.9     490.94   3.6      0                        
Sub166           SHC              J369             1.87766  21.13    1216.5   3.66     0                        
Sub167           SHC              In167            0.87848  50.29    841.31   2.76     0                        
Sub168           SHC              In168            0.51476  53.49    506.63   3.51     0                        
Sub169           SHC              In169            0.61879  16.35    382.65   3.73     0                        
Sub170           SHC              J374             1.15383  21.45    739.62   3.15     0                        
Sub171           SHC              J372             2.43577  10.78    1442.79  2.92     0                        
Sub172           SHC              In172            0.33127  58.16    365.15   2.49     0                        
Sub173           SHC              In173            2.14639  51.24    1994.65  4.37     0                        
Sub174           SHC              In174            0.61183  50.36    567.93   3.98     0                        
Sub175           SHC              In175            0.6718   41.28    536.89   4.95     0                        
Sub176           SHC              J379             1.92328  17.78    1204.04  3.78     0                        
Sub177           SHC              In177            0.59267  44.45    512.26   3.41     0                        
Sub178           SHC              J376             0.95223  12.67    572.88   3.14     0                        
Sub179           SHC              In179            0.27862  27.88    189.14   5.15     0                        
Sub180           SHC              J382             0.56657  8.03     328.14   2.73     0                        
Sub181           SHC              J375             1.13956  18.51    701.73   3.21     0                        
Sub182           SHC              In182            0.75574  44.18    657.89   3.12     0                        
Sub183           SHC              In183            0.32186  36.34    250.47   3.28     0                        
Sub184           SHC              J376             0.62285  17.04    378.39   3.47     0                        
Sub185           SHC              In185            0.61184  58.58    649.2    3.74     0                        
Sub186           SHC              In186            2.21693  20.27    1400.4   3.8      0                        
Sub187           SHC              J377             2.17427  16.45    1348.12  3.24     0                        
Sub188           SHC              J382             1.68953  13.65    1044.61  2.07     0                        
Sub189           SHC              In186            2.55394  22.96    1720.56  3.1      0                        
Sub190           SHC              In190            2.53812  10.4     1491.65  3.22     0                        

[SUBAREAS]
;;Subcatchment   N-Imperv   N-Perv     S-Imperv   S-Perv     PctZero    RouteTo    PctRouted 
;;-------------- ---------- ---------- ---------- ---------- ---------- ---------- ----------
Sub000           0.01       0.2        0.05       0.2        0          IMPERVIOUS 100       
Sub001           0.01       0.3        0.05       0.2        13.95      OUTLET    
Sub002           0.01       0.3        0.05       0.2        0          OUTLET    
Sub003           0.01       0.322      0.05       0.207      0          OUTLET    
Sub004           0.01       0.311      0.05       0.204      0          OUTLET    
Sub005           0.01       0.397      0.05       0.232      2.14       OUTLET    
Sub006           0.01       0.4        0.05       0.233      6.5        OUTLET    
Sub007           0.01       0.305      0.05       0.202      0          OUTLET    
Sub008           0.01       0.425      0.05       0.242      0          OUTLET    
Sub009           0.01       0.423      0.1        0.241      0          OUTLET    
Sub010           0.01       0.3        0.05       0.2        0          OUTLET    
Sub011           0.01       0.437      0.05       0.246      0          IMPERVIOUS 100       
Sub012           0.01       0.3        0.05       0.2        0          IMPERVIOUS 100       
Sub013           0.01       0.3        0.05       0.2        0          OUTLET    
Sub014           0.01       0.3        0.05       0.2        0          IMPERVIOUS 100       
Sub015           0.01       0.375      0.1        0.225      0          OUTLET    
Sub016           0.01       0.307      0.05       0.202      0          OUTLET    
Sub017           0.01       0.379      0.05       0.226      0          OUTLET    
Sub018           0.01       0.357      0.05       0.219      0          OUTLET    
Sub019           0.01       0.354      0.05       0.218      0          OUTLET    
Sub020           0.01       0.3        0.05       0.2        0          OUTLET    
Sub021           0.01       0.3        0.05       0.2        0          IMPERVIOUS 100       
Sub022           0.01       0.471      0.05       0.257      0          OUTLET    
Sub023           0.01       0.3        0.05       0.2        0          OUTLET    
Sub024           0.01       0.484      0.05       0.261      0          OUTLET    
Sub025           0.01       0.509      0.05       0.27       0          OUTLET    
Sub026           0.01       0.3        0.05       0.2        0          IMPERVIOUS 100       
Sub027           0.01       0.365      0.05       0.222      0          OUTLET    
Sub028           0.01       0.3        0.05       0.2        0          OUTLET    
Sub029           0.01       0.3        0.05       0.2        0          OUTLET    
Sub030           0.01       0.3        0.05       0.2        0          IMPERVIOUS 100       
Sub031           0.01       0.388      0.05       0.229      0          OUTLET    
Sub032           0.01       0.343      0.05       0.214      0          IMPERVIOUS 100       
Sub033           0.01       0.3        0.05       0.2        0          OUTLET    
Sub034           0.01       0.376      0.05       0.225      0          OUTLET    
Sub035           0.01       0.3        0.05       0.2        0          IMPERVIOUS 100       
Sub036           0.01       0.3        0.05       0.2        0          IMPERVIOUS 100       
Sub037           0.01       0.433      0.05       0.244      0          OUTLET    
Sub038           0.01       0.3        0.05       0.2        0          OUTLET    
Sub039           0.01       0.533      0.05       0.278      0          OUTLET    
Sub040           0.01       0.3        0.05       0.2        0          IMPERVIOUS 100       
Sub041           0.01       0.3        0.05       0.2        0          OUTLET    
Sub042           0.01       0.3        0.05       0.2        0          OUTLET    
Sub043           0.01       0.3        0.05       0.2        0          IMPERVIOUS 100       
Sub044           0.01       0.3        0.05       0.2        0          IMPERVIOUS 100       
Sub045           0.01       0.3        0.05       0.2        0          IMPERVIOUS 100       
Sub046           0.01       0.3        0.05       0.2        0          OUTLET    
Sub047           0.01       0.495      0.05       0.265      0          OUTLET    
Sub048           0.01       0.35       0.05       0.217      0          OUTLET    
Sub049           0.01       0.358      0.05       0.219      0          OUTLET    
Sub050           0.01       0.3        0.05       0.2        0          OUTLET    
Sub051           0.01       0.3        0.05       0.2        0          IMPERVIOUS 100       
Sub052           0.01       0.3        0.05       0.2        0          IMPERVIOUS 100       
Sub053           0.01       0.3        0.05       0.2        0          OUTLET    
Sub054           0.01       0.3        0.05       0.2        0          IMPERVIOUS 100       
Sub055           0.01       0.415      0.05       0.238      0          OUTLET    
Sub056           0.01       0.3        0.05       0.2        0          OUTLET    
Sub057           0.01       0.304      0.05       0.201      0          IMPERVIOUS 100       
Sub058           0.01       0.416      0.05       0.239      0          OUTLET    
Sub059           0.01       0.3        0.05       0.2        0          IMPERVIOUS 100       
Sub060           0.01       0.3        0.05       0.2        0          OUTLET    
Sub061           0.01       0.3        0.05       0.2        0          OUTLET    
Sub062           0.01       0.3        0.05       0.2        0          OUTLET    
Sub063           0.01       0.324      0.05       0.208      0          IMPERVIOUS 100       
Sub064           0.01       0.3        0.05       0.2        0          OUTLET    
Sub065           0.01       0.3        0.05       0.2        0          IMPERVIOUS 100       
Sub066           0.01       0.383      0.05       0.228      0          OUTLET    
Sub067           0.01       0.3        0.05       0.2        0          IMPERVIOUS 100       